<?xml version="1.0" encoding="UTF-8"?>

<!-- generated on 2024-04-06 14:50:05.117487 by $Id: ptlines2flows.py v1_3_1+0313-ccb31df3eb jakob.erdmann@dlr.de 2019-09-02 13:26:32 +0200 $ UNKNOWN
<configuration>
    <net-file value="/home/damian/Sumo/2024-04-06-14-49-57/osm.net.xml.gz"/>
    <ptlines-file value="/home/damian/Sumo/2024-04-06-14-49-57/osm_ptlines.xml"/>
    <ptstops-file value="/home/damian/Sumo/2024-04-06-14-49-57/osm_stops.add.xml"/>
    <output-file value="/home/damian/Sumo/2024-04-06-14-49-57/osm_pt.rou.xml"/>
    <stopinfos-file value="/home/damian/Sumo/2024-04-06-14-49-57/stopinfos.xml"/>
    <routes-file value="/home/damian/Sumo/2024-04-06-14-49-57/vehroutes.xml"/>
    <trips-file value="/home/damian/Sumo/2024-04-06-14-49-57/trips.trips.xml"/>
    <min-stops value="0"/>
    <extend-to-fringe value="True"/>
    <random-begin value="True"/>
    <seed value="42"/>
    <ignore-errors value="True"/>
    <vtype-prefix value="pt_"/>
    <verbose value="True"/>
</configuration>
-->

<routes xmlns:xsi="http://www.w3.org/2001/XMLSchema-instance" xsi:noNamespaceSchemaLocation="http://sumo.dlr.de/xsd/routes_file.xsd">
    <vType id="pt_bus" vClass="bus" speedFactor="0.95"/>
    <vType id="pt_tram" vClass="tram" speedFactor="1.0"/>
    <vType id="pt_train" vClass="rail"/>
    <vType id="pt_subway" vClass="rail_urban"/>
    <vType id="pt_light_rail" vClass="rail_urban"/>
    <vType id="pt_monorail" vClass="rail_urban"/>
    <vType id="pt_trolleybus" vClass="bus" speedFactor="0.95"/>
    <vType id="pt_minibus" vClass="bus" speedFactor="0.95"/>
    <vType id="pt_share_taxi" vClass="taxi" speedFactor="0.95"/>
    <vType id="pt_aerialway" vClass="rail_urban" length="2.5" width="2" personCapacity="4"/>
    <vType id="pt_ferry" vClass="ship"/>
    <trip id="0_bus_18:0" type="pt_bus" depart="15.0" departLane="best" from="266142472" to="504679534#2">
        <stop busStop="2169578110" duration="30"/>
        <stop busStop="2019089673" duration="30"/>
        <stop busStop="2019089655" duration="30"/>
        <stop busStop="1946190642" duration="30"/>
    </trip>
    <trip id="1_bus_34:0" type="pt_bus" depart="15.0" departLane="best" from="266142472" to="194796145#1">
        <stop busStop="2169578110" duration="30"/>
        <stop busStop="2019089673" duration="30"/>
        <stop busStop="2256139376" duration="30"/>
        <stop busStop="2256139471" duration="30"/>
    </trip>
    <trip id="2_bus_18:1" type="pt_bus" depart="17.0" departLane="best" from="998014583#2" to="495869020">
        <stop busStop="2019066843" duration="30"/>
        <stop busStop="2169578111" duration="30"/>
    </trip>
    <trip id="3_bus_19:0" type="pt_bus" depart="52.0" departLane="best" from="247887448" to="504679534#2">
        <stop busStop="2256139680" duration="30"/>
        <stop busStop="2256139460" duration="30"/>
        <stop busStop="1946190642" duration="30"/>
    </trip>
    <trip id="4_bus_19:1" type="pt_bus" depart="119.0" departLane="best" from="998014583#2" to="255596829#0">
        <stop busStop="2256139376" duration="30"/>
        <stop busStop="2256139471" duration="30"/>
        <stop busStop="2077200093" duration="30"/>
    </trip>
    <trip id="5_bus_34:1" type="pt_bus" depart="131.0" departLane="best" from="44625072#1" to="495869020">
        <stop busStop="2256139680" duration="30"/>
        <stop busStop="2256139460" duration="30"/>
        <stop busStop="2019066843" duration="30"/>
        <stop busStop="2169578111" duration="30"/>
    </trip>
    <trip id="6_bus_10:0" type="pt_bus" depart="132.0" departLane="best" from="172993580#1" to="266142462">
        <stop busStop="2246607886" duration="30"/>
        <stop busStop="1838250021" duration="30"/>
        <stop busStop="2169578110" duration="30"/>
    </trip>
    <trip id="7_bus_10:1" type="pt_bus" depart="133.0" departLane="best" from="998014583#2" to="89215720#2">
        <stop busStop="2169578111" duration="30"/>
        <stop busStop="2261682324" duration="30"/>
        <stop busStop="633750515" duration="30"/>
        <stop busStop="2246608407" duration="30"/>
    </trip>
    <trip id="8_bus_11:0" type="pt_bus" depart="165.0" departLane="best" from="495869020" to="495869020">
        <stop busStop="2019089715" duration="30"/>
    </trip>
    <trip id="9_bus_11:1" type="pt_bus" depart="253.0" departLane="best" from="172993580#1" to="172993580#1">
        <stop busStop="2261682324" duration="30"/>
    </trip>
    <trip id="10_bus_21:0" type="pt_bus" depart="303.0" departLane="best" from="302684927#0" to="255596829#0">
        <stop busStop="2261682324" duration="30"/>
        <stop busStop="633750515" duration="30"/>
    </trip>
    <trip id="11_bus_21:1" type="pt_bus" depart="326.0" departLane="best" from="733861039" to="-302684927#0">
        <stop busStop="-2246607886" duration="30"/>
        <stop busStop="-1838250021" duration="30"/>
        <stop busStop="2169578109" duration="30"/>
    </trip>
    <trip id="12_bus_26:0" type="pt_bus" depart="353.0" departLane="best" from="343501971#0" to="194796145#1">
        <stop busStop="-2246607886" duration="30"/>
        <stop busStop="-1838250021" duration="30"/>
        <stop busStop="2019089715" duration="30"/>
    </trip>
    <trip id="13_bus_26:1" type="pt_bus" depart="383.0" departLane="best" from="266142472" to="194796145#1">
        <stop busStop="2261682324" duration="30"/>
        <stop busStop="633750515" duration="30"/>
    </trip>
    <trip id="14_bus_31:0" type="pt_bus" depart="389.0" departLane="best" from="-172993580#27" to="89215720#2">
        <stop busStop="-2261682324" duration="30"/>
        <stop busStop="-633750515" duration="30"/>
        <stop busStop="2246608407" duration="30"/>
    </trip>
    <trip id="15_bus_32:0" type="pt_bus" depart="406.0" departLane="best" from="266142472" to="44625101#1">
        <stop busStop="2261682324" duration="30"/>
        <stop busStop="633750515" duration="30"/>
    </trip>
    <trip id="16_bus_32:1" type="pt_bus" depart="441.0" departLane="best" from="172993580#1" to="495869020">
        <stop busStop="2246607886" duration="30"/>
        <stop busStop="1838250021" duration="30"/>
        <stop busStop="2019089715" duration="30"/>
    </trip>
    <trip id="17_bus_0A:0" type="pt_bus" depart="485.0" departLane="best" from="266142472" to="255596829#0">
        <stop busStop="2169578110" duration="30"/>
        <stop busStop="2019089673" duration="30"/>
        <stop busStop="2019089655" duration="30"/>
        <stop busStop="2256139376" duration="30"/>
        <stop busStop="2256139471" duration="30"/>
        <stop busStop="4910564662" duration="30"/>
        <stop busStop="2077200093" duration="30"/>
    </trip>
    <trip id="18_bus_0B:0" type="pt_bus" depart="535.0" departLane="best" from="247887448" to="495869020">
        <stop busStop="2256139680" duration="30"/>
        <stop busStop="2256139460" duration="30"/>
        <stop busStop="2019066843" duration="30"/>
        <stop busStop="5245333935" duration="30"/>
        <stop busStop="2169578111" duration="30"/>
    </trip>
</routes>
